Circuit: * H:\My Drive\QNN_Group\micron-width-cryotron\github-data availability\wTron-SPICE_model\wtron_test.asc

Per .tran options, skipping operating point for transient analysis.

Date: Sun Jul  6 11:12:48 2025
Total elapsed time: 0.304 seconds.

tnom = 27
temp = 27
method = modified trap
totiter = 3567
traniter = 3567
tranpoints = 1103
accept = 996
rejected = 107
matrix size = 41
fillins = 57
solver = Normal
Avg thread counts: 1.2/1.6/1.6/1.2
Matrix Compiler1: 5.23 KB object code size  1.5/1.3/[0.9]
Matrix Compiler2: off  [0.3]/0.7/0.9

