Circuit: * H:\My Drive\QNN_Group\micron-width-cryotron\github-data availability\wTron-Supplementary\FigureA2\SPICE_model\wTron_no_coax.asc

WARNING: Less than two connections to node nc_01.  This node is used by l:u1:g.
Per .tran options, skipping operating point for transient analysis.

Date: Sun Jul  6 18:04:36 2025
Total elapsed time: 0.320 seconds.

tnom = 27
temp = 27
method = modified trap
totiter = 2730
traniter = 2730
tranpoints = 859
accept = 749
rejected = 110
matrix size = 43
fillins = 40
solver = Normal
Avg thread counts: 1.2/1.8/1.8/1.2
Matrix Compiler1: 3.91 KB object code size  2.0/3.0/[1.1]
Matrix Compiler2: off  [0.8]/3.0/2.1

